Circuit: * D:\repos\RFSoC_Ising_Machine\pcbs\eom_driver_v1\ltspice\eom_driver_sim.asc

Direct Newton iteration for .op point succeeded.

Date: Tue Mar 29 11:20:20 2022
Total elapsed time: 0.361 seconds.

tnom = 27
temp = 27
method = modified trap
totiter = 2089
traniter = 2082
tranpoints = 1042
accept = 1042
rejected = 0
matrix size = 20
fillins = 5
solver = Normal
Matrix Compiler1: 1.00 KB object code size  0.4/0.3/[0.1]
Matrix Compiler2: off  [0.3]/0.6/0.4

